ELEMENTS
H C O N AR 
END

SPECIES
BAOJ	BAOJ2D	CH3OCO	MB
MB2D	MB2J	MB2O	MB2OO
MB2OOH	MB2OOH3J	MB2OOH4J	MB2OOH4OO
MB3J	MB3OO	MB3OOH2J	MB4*O
MB4J	MB4O	MB4OO	MB4OOH2*O
MB4OOH2J	MB4OOH2OO	MBCY2OM	MBMJ
MBMO	MBMOO	MBMOOH2J	MBMOOH2OO
ME2*O	ME2J	MP2D	MP2D3J
MP3J	MP3J2*O	SC3H5OCH2	MB2OOH4*O
MB3D	MB4OOH	MB4OOH3J	MBM*O
H	H2	O	O2
OH	H2O	CO	HCO
CO2	CH3	CH4	HO2
H2O2	CH2O	CH3O	C2H6
C2H4	C2H5	CH2	C2H
C2H2	C2H3	CH3OH	CH2OH
CH2CO	HCCO	CH3CO	CH2CHO
C3H4-A	C3H4-P	C3H6	NC3H7
IC3H7	C2H5CHO	CH3O2	CH3O2H
C2H3O1,2	C2H3CO	C3H5O	IC3H7O2
C3H5-A	C3H5-S	C3H3	C3H2
CH2(S)	IC3H7CHO	NC3H7CO	CH3CHCOCH3
C2H3COCH3	CH3CHCO	IC3H6CHCOCH3	AC3H5CHCOCH3
IC3H6CHCOCH2	AC3H5CHO	AC3H5CO	C2H3CHCHO
HOCH2O	HOCHO	MB2DMJ	MB2D4J
AR N2
END

REACTIONS
!1
MB4J+H=MB  1.0000e+014 0.000 0.0
!2
MB3J+H=MB  1.0000e+014 0.000 0.0
!3
MB2J+H=MB  1.0000e+014 0.000 0.0
!4
MBMJ+H=MB  1.0000e+014 0.000 0.0
!5
MP3J+CH3=MB  1.0000e+013 0.000 0.0
!6
BAOJ+CH3=MB  3.0000e+013 0.000 0.0
!7
ME2J+C2H5=MB  8.0000e+012 0.000 0.0
!8
CH3OCO+NC3H7=MB  1.8100e+013 0.000 0.0
!9
NC3H7CO+CH3O=MB  3.0000e+013 0.000 0.0
!10
MB+C2H3=C2H4+MB4J  5.0100e+011 0.000 18000.0
!11
MB+C2H5=C2H6+MB4J  5.0100e+010 0.000 13400.0
!12
MB+CH3=CH4+MB4J  4.5200e-001 3.650 7154.0
!13
MB+CH3O=CH3OH+MB4J  1.5810e+011 0.000 7000.0
!14
MB+CH3O2=CH3O2H+MB4J  8.4000e+012 0.000 20440.0
!15
MB+H=H2+MB4J  9.4000e+004 2.750 6280.0
!16
MB+HO2=H2O2+MB4J  8.4000e+012 0.000 20440.0
!17
MB+O=OH+MB4J  9.6500e+004 2.680 3716.0
!18
MB+O2=HO2+MB4J  3.0000e+013 0.000 52800.0
!19
MB+OH=H2O+MB4J  5.2500e+009 0.970 1590.0
!20
MB+MB4OO=MB4OOH+MB4J  2.8000e+012 0.000 20440.0
!21
!*** trimmed *** MB+MB3OO=MB3OOH+MB4J  2.8000e-038 0.000 20440.0
!22
MB+MB2OO=MB2OOH+MB4J  2.8000e+012 0.000 20440.0
!23
!*** trimmed *** MB+MBMOO=MBMOOH+MB4J  2.8000e-038 0.000 20440.0
!24
MB+C2H3=C2H4+MB3J  4.0000e+011 0.000 16800.0
!25
MB+C2H5=C2H6+MB3J  5.0000e+010 0.000 10400.0
!26
MB+CH3=CH4+MB3J  2.7050e+004 2.260 7287.0
!27
MB+CH3O=CH3OH+MB3J  1.0950e+011 0.000 5000.0
!28
MB+CH3O2=CH3O2H+MB3J  5.6000e+012 0.000 17690.0
!29
MB+H=H2+MB3J  1.3000e+006 2.400 4471.0
!30
MB+HO2=H2O2+MB3J  5.6000e+012 0.000 17690.0
!31
MB+O=OH+MB3J  4.7700e+004 2.710 2106.0
!32
MB+O2=HO2+MB3J  2.0000e+013 0.000 51050.0
!33
MB+OH=H2O+MB3J  4.6800e+007 1.610 -35.0
!34
MB+MB4OO=MB4OOH+MB3J  1.8670e+012 0.000 17690.0
!35
!*** trimmed *** MB+MB3OO=MB3OOH+MB3J  1.8670e-038 0.000 17690.0
!36
MB+MB2OO=MB2OOH+MB3J  1.8670e+012 0.000 17690.0
!37
!*** trimmed *** MB+MBMOO=MBMOOH+MB3J  1.8670e-038 0.000 17690.0
!38
MB+C2H3=C2H4+MB2J  4.0000e+011 0.000 14300.0
!39
MB+C2H5=C2H6+MB2J  2.0000e+011 0.000 7900.0
!40
MB+CH3=CH4+MB2J  2.0000e+011 0.000 7900.0
!41
MB+CH3O=CH3OH+MB2J  3.8000e+010 0.000 2800.0
!42
MB+CH3O2=CH3O2H+MB2J  4.0000e+012 0.000 14000.0
!43
MB+H=H2+MB2J  1.0000e+014 0.000 7300.0
!44
MB+HO2=H2O2+MB2J  4.3200e+012 0.000 14400.0
!45
MB+O=OH+MB2J  2.2000e+013 0.000 3280.0
!46
MB+O2=HO2+MB2J  4.0000e+013 0.000 41300.0
!47
MB+OH=H2O+MB2J  1.1460e+011 0.510 63.0
!48
MB+MB4OO=MB4OOH+MB2J  2.1600e+012 0.000 14400.0
!49
!*** trimmed *** MB+MB3OO=MB3OOH+MB2J  2.1600e-038 0.000 14400.0
!50
MB+MB2OO=MB2OOH+MB2J  2.1600e+012 0.000 14400.0
!51
!*** trimmed *** MB+MBMOO=MBMOOH+MB2J  2.1600e-038 0.000 14400.0
!52
MB+C2H3=C2H4+MBMJ  5.0100e+011 0.000 18000.0
!53
MB+C2H5=C2H6+MBMJ  5.0100e+010 0.000 13400.0
!54
MB+CH3=CH4+MBMJ  4.5200e-001 3.650 7154.0
!55
MB+CH3O=CH3OH+MBMJ  1.5810e+011 0.000 7000.0
!56
MB+CH3O2=CH3O2H+MBMJ  8.4000e+012 0.000 20440.0
!57
MB+H=H2+MBMJ  9.4000e+004 2.750 6280.0
!58
MB+HO2=H2O2+MBMJ  8.4000e+012 0.000 20440.0
!59
MB+O=OH+MBMJ  9.6500e+004 2.680 3716.0
!60
MB+O2=HO2+MBMJ  3.0000e+013 0.000 52800.0
!61
MB+OH=H2O+MBMJ  5.2500e+009 0.970 1590.0
!62
MB+MB4OO=MB4OOH+MBMJ  2.8000e+012 0.000 20440.0
!63
!*** trimmed *** MB+MB3OO=MB3OOH+MBMJ  2.8000e-038 0.000 20440.0
!64
MB+MB2OO=MB2OOH+MBMJ  2.8000e+012 0.000 20440.0
!65
!*** trimmed *** MB+MBMOO=MBMOOH+MBMJ  2.8000e-038 0.000 20440.0
!66
CO2+NC3H7=BAOJ  1.0000e+011 0.000 39360.0
!67
!*** trimmed *** C2H5CHCO+CH3O=MB2J  5.0000e-039 0.000 -1000.0
!68
MB2D+H=MB2J  1.0000e+013 0.000 2900.0
!69
MP2D+CH3=MB2J  1.0000e+011 0.000 7600.0
!70
C3H6+CH3OCO=MB3J  1.0550e+011 0.000 7350.0
!71
MB2D+H=MB3J  1.0000e+013 0.000 2900.0
!72
MB3D+H=MB3J  1.0000e+013 0.000 1200.0
!73
C2H4+ME2J=MB4J  2.0000e+011 0.000 7600.0
!74
MB3D+H=MB4J  1.0000e+013 0.000 2900.0
!75
CH2CO+CH3O=ME2J  5.0000e+011 0.000 -1000.0
!76
CO+CH3O=CH3OCO  1.5000e+011 0.000 3000.0
!77
CO2+CH3=CH3OCO  1.5000e+011 0.000 36730.0
!78
C2H4+CH3OCO=MP3J  2.1100e+011 0.000 7350.0
!79
MP2D+H=MP3J  1.0000e+013 0.000 2900.0
!80
!*** trimmed *** C2H5CHCO+H=NC3H7CO  1.0000e-037 0.000 2900.0
!81
CH2CO+C2H5=NC3H7CO  1.0000e+011 0.000 7600.0
!82
NC3H7CO+CH2O=MBMJ  2.0020e+012 0.000 24000.0
!83
MB4J=MB2J  1.7860e+009 0.798 31736.3
!84
MB4J=MB3J  1.6390e+010 0.945 39319.5
!85
MB4J=MBMJ  4.5470e+009 -0.544 18822.5
!86
MB3J=MBMJ  9.2560e+010 -0.654 13897.0
!87
MB3J=MB2J  1.4140e+010 0.862 39467.5
!88
MB2J=MBMJ  8.4950e+011 -0.507 21614.5
!89
!*** trimmed *** MB2D+CH3=C5H7O2+CH4  1.0000e-038 0.000 7300.0
!90
!*** trimmed *** MB3D+CH3=C5H7O2+CH4  1.0000e-038 0.000 7300.0
!91
MP2D+CH3=>C2H3CO+CH2O+CH4  4.5200e-001 3.650 7154.0
!92
!*** trimmed *** MB2D+H=C5H7O2+H2  3.7000e-037 0.000 3900.0
!93
!*** trimmed *** MB3D+H=C5H7O2+H2  3.7000e-037 0.000 3900.0
!94
MP2D+H=>C2H3CO+CH2O+H2  9.4000e+004 2.750 6280.0
!95
!*** trimmed *** C5H7O2+OH=MB2D+O  7.0000e-039 0.000 29900.0
!96
!*** trimmed *** C5H7O2+OH=MB3D+O  7.0000e-039 0.000 29900.0
!97
MP2D+O=>C2H3CO+CH2O+OH  9.6500e+004 2.680 3716.0
!98
!*** trimmed *** MB2D+OH=C5H7O2+H2O  3.0000e-037 0.000 1230.0
!99
!*** trimmed *** MB3D+OH=C5H7O2+H2O  3.0000e-037 0.000 1230.0
!100
MP2D+OH=>C2H3CO+CH2O+H2O  5.2500e+009 0.970 1590.0
!101
!*** trimmed *** MB2D+HO2=C5H7O2+H2O2  1.5000e-039 0.000 14190.0
!102
!*** trimmed *** MB3D+HO2=C5H7O2+H2O2  1.5000e-039 0.000 14190.0
!103
MP2D+HO2=>C2H3CO+CH2O+H2O2  8.4000e+012 0.000 20440.0
!104
!*** trimmed *** MB3D+OH=MB3OH4J  2.7600e-038 0.000 -1042.0
!105
!*** trimmed *** MB2D+OH=MB2OH3J  2.7600e-038 0.000 -1042.0
!106
!*** trimmed *** MP2D+OH=MP2OH3J  2.7600e-038 0.000 -1042.0
!107
!*** trimmed *** MB3OH4J+O2=MB3OH4OO  1.0000e-038 0.000 -1100.0
!108
!*** trimmed *** MB2OH3J+O2=MB2OH3OO  1.0000e-038 0.000 -1100.0
!109
!*** trimmed *** MP2OH3J+O2=MP2OH3OO  1.0000e-038 0.000 -1100.0
!110
!*** trimmed *** MB3OH4OO=>MP3*O+OH+CH2O  1.0000e-038 0.000 28680.0
!111
!*** trimmed *** MB2OH3OO=>ME2*O+OH+CH3CHO  1.0000e-038 0.000 28680.0
!112
!*** trimmed *** MP2OH3OO=>ME2*O+OH+CH2O  1.0000e-038 0.000 28680.0
!113
MB3D+O=MP3J+HCO  1.5800e+007 1.760 -1216.0
!114
MB2D+O=ME2J+CH3CO  1.5800e+007 1.760 -1216.0
!115
MP2D+O=ME2J+HCO  1.5800e+007 1.760 -1216.0
!116
MB3D+O=ME2J+CH2CHO  2.5050e+007 1.760 76.0
!117
!*** trimmed *** MB3D+O=>C2H3CHO+H+CH3OCO  2.5050e-043 1.760 76.0
!118
!*** trimmed *** MB2D+O=CH3OCO+CH3CHCHO  5.0100e-043 1.760 76.0
!119
MP2D+O=CH3OCO+CH2CHO  5.0100e+007 1.760 76.0
!120
!*** trimmed *** C5H7O2=CH2CHCHCO+CH3O  2.5000e-037 0.000 45000.0
!121
!*** trimmed *** CH2CHCHCO+H=CJHCHCHCO+H2  4.2100e-053 4.620 2583.0
!122
!*** trimmed *** CH2CHCHCO+OH=CJHCHCHCO+H2O  1.0100e-037 0.000 5955.0
!123
!*** trimmed *** CH2CHCHCO+CH3=CJHCHCHCO+CH4  3.3100e-050 3.700 9500.0
!124
!*** trimmed *** CH2CHCHCO+O=CJHCHCHCO+OH  1.2000e-039 0.700 8959.0
!125
!*** trimmed *** CH2CHCHCO+HO2=CJHCHCHCO+H2O2  8.5000e-037 0.000 3.043E4
!126
!*** trimmed *** C2H2+HCCO=CJHCHCHCO  1.6100e-010 -8.580 20331.0
!127
!*** trimmed *** C2H3+HCCO=CH2CHCHCO  8.0000e-038 0.000 0.0
!128
!*** trimmed *** CH2CHCHCO+H=CO+C3H5-A  1.1000e-037 0.000 3400.0
!129
!*** trimmed *** CH2CHCHCO+H=C2H4+HCCO  1.1000e-037 0.000 3400.0
!130
!*** trimmed *** CH2CHCHCO+OH=HCCO+CH3CHO  3.7300e-038 0.000 -1013.0
!131
!*** trimmed *** CH2CHCHCO+OH=CH3CHCHO+CO  3.7300e-038 0.000 -1013.0
!132
CH3+MP2D3J=MB2D  1.0000e+013 0.000 0.0
!133
C2H3+ME2J=MB3D  1.0000e+013 0.000 0.0
!134
C2H3+CH3OCO=MP2D  1.0000e+013 0.000 0.0
!135
HCO+CH3OCO=ME2*O  1.0000e+013 0.000 0.0
!136
HCO+MP3J=MB4*O  1.0000e+013 0.000 0.0
!137
!*** trimmed *** NC3H7+CHOOCO=MBM*O  1.0000e-037 0.000 0.0
!138
!*** trimmed *** HCO+CHOOCO=ME2*OM*O  1.0000e-037 0.000 0.0
!139
!*** trimmed *** CH2CHO+CH3OCO=MP3*O  1.0000e-037 0.000 0.0
!140
!*** trimmed *** CH3+C2H3CO=C2H5CHCO  1.0000e-037 0.000 0.0
!141
MB4J+O2=MB4OO  4.5000e+012 0.000 0.0
!142
MBMJ+O2=MBMOO  4.5000e+012 0.000 0.0
!143
MB3J+O2=MB3OO  7.5400e+012 0.000 0.0
!144
MB2J+O2=MB2OO  1.4100e+013 0.000 0.0
!145
MB4OO+MB4J=MB4O+MB4O  7.0000e+012 0.000 -1000.0
!146
!*** trimmed *** MB4OO+MB3J=MB4O+MB3O  7.0000e-038 0.000 -1000.0
!147
MB4OO+MB2J=MB4O+MB2O  7.0000e+012 0.000 -1000.0
!148
MB4OO+MBMJ=MB4O+MBMO  7.0000e+012 0.000 -1000.0
!149
!*** trimmed *** MB3OO+MB4J=MB3O+MB4O  7.0000e-038 0.000 -1000.0
!150
!*** trimmed *** MB3OO+MB3J=MB3O+MB3O  7.0000e-038 0.000 -1000.0
!151
!*** trimmed *** MB3OO+MB2J=MB3O+MB2O  7.0000e-038 0.000 -1000.0
!152
!*** trimmed *** MB3OO+MBMJ=MB3O+MBMO  7.0000e-038 0.000 -1000.0
!153
MB2OO+MB4J=MB2O+MB4O  7.0000e+012 0.000 -1000.0
!154
!*** trimmed *** MB2OO+MB3J=MB2O+MB3O  7.0000e-038 0.000 -1000.0
!155
MB2OO+MB2J=MB2O+MB2O  7.0000e+012 0.000 -1000.0
!156
MB2OO+MBMJ=MB2O+MBMO  7.0000e+012 0.000 -1000.0
!157
MBMOO+MB4J=MBMO+MB4O  7.0000e+012 0.000 -1000.0
!158
!*** trimmed *** MBMOO+MB3J=MBMO+MB3O  7.0000e-038 0.000 -1000.0
!159
MBMOO+MB2J=MBMO+MB2O  7.0000e+012 0.000 -1000.0
!160
MBMOO+MBMJ=MBMO+MBMO  7.0000e+012 0.000 -1000.0
!161
MB4OO+CH3=CH3O+MB4O  7.0000e+012 0.000 -1000.0
!162
!*** trimmed *** MB4OO+C2H5=C2H5O+MB4O  7.0000e-038 0.000 -1000.0
!163
!*** trimmed *** MB4OO+IC3H7=IC3H7O+MB4O  7.0000e-038 0.000 -1000.0
!164
!*** trimmed *** MB4OO+NC3H7=NC3H7O+MB4O  7.0000e-038 0.000 -1000.0
!165
!*** trimmed *** MB3OO+CH3=CH3O+MB3O  7.0000e-038 0.000 -1000.0
!166
!*** trimmed *** MB3OO+C2H5=C2H5O+MB3O  7.0000e-038 0.000 -1000.0
!167
!*** trimmed *** MB3OO+IC3H7=IC3H7O+MB3O  7.0000e-038 0.000 -1000.0
!168
!*** trimmed *** MB3OO+NC3H7=NC3H7O+MB3O  7.0000e-038 0.000 -1000.0
!169
MB2OO+CH3=CH3O+MB2O  7.0000e+012 0.000 -1000.0
!170
!*** trimmed *** MB2OO+C2H5=C2H5O+MB2O  7.0000e-038 0.000 -1000.0
!171
!*** trimmed *** MB2OO+IC3H7=IC3H7O+MB2O  7.0000e-038 0.000 -1000.0
!172
!*** trimmed *** MB2OO+NC3H7=NC3H7O+MB2O  7.0000e-038 0.000 -1000.0
!173
MBMOO+CH3=CH3O+MBMO  7.0000e+012 0.000 -1000.0
!174
!*** trimmed *** MBMOO+C2H5=C2H5O+MBMO  7.0000e-038 0.000 -1000.0
!175
!*** trimmed *** MBMOO+IC3H7=IC3H7O+MBMO  7.0000e-038 0.000 -1000.0
!176
!*** trimmed *** MBMOO+NC3H7=NC3H7O+MBMO  7.0000e-038 0.000 -1000.0
!177
!*** trimmed *** C2H5O2+MB2J=C2H5O+MB2O  7.0000e-038 0.000 -1000.0
!178
!*** trimmed *** C2H5O2+MB3J=C2H5O+MB3O  7.0000e-038 0.000 -1000.0
!179
!*** trimmed *** C2H5O2+MB4J=C2H5O+MB4O  7.0000e-038 0.000 -1000.0
!180
!*** trimmed *** C2H5O2+MBMJ=C2H5O+MBMO  7.0000e-038 0.000 -1000.0
!181
CH3O2+MB2J=CH3O+MB2O  7.0000e+012 0.000 -1000.0
!182
!*** trimmed *** CH3O2+MB3J=CH3O+MB3O  7.0000e-038 0.000 -1000.0
!183
CH3O2+MB4J=CH3O+MB4O  7.0000e+012 0.000 -1000.0
!184
CH3O2+MBMJ=CH3O+MBMO  7.0000e+012 0.000 -1000.0
!185
HO2+MB2J=OH+MB2O  7.0000e+012 0.000 -1000.0
!186
!*** trimmed *** HO2+MB3J=OH+MB3O  7.0000e-038 0.000 -1000.0
!187
HO2+MB4J=OH+MB4O  7.0000e+012 0.000 -1000.0
!188
HO2+MBMJ=OH+MBMO  7.0000e+012 0.000 -1000.0
!189
!*** trimmed *** IC3H7O2+MB2J=IC3H7O+MB2O  7.0000e-038 0.000 -1000.0
!190
!*** trimmed *** IC3H7O2+MB3J=IC3H7O+MB3O  7.0000e-038 0.000 -1000.0
!191
!*** trimmed *** IC3H7O2+MB4J=IC3H7O+MB4O  7.0000e-038 0.000 -1000.0
!192
!*** trimmed *** IC3H7O2+MBMJ=IC3H7O+MBMO  7.0000e-038 0.000 -1000.0
!193
!*** trimmed *** NC3H7O2+MB2J=NC3H7O+MB2O  7.0000e-038 0.000 -1000.0
!194
!*** trimmed *** NC3H7O2+MB3J=NC3H7O+MB3O  7.0000e-038 0.000 -1000.0
!195
!*** trimmed *** NC3H7O2+MB4J=NC3H7O+MB4O  7.0000e-038 0.000 -1000.0
!196
!*** trimmed *** NC3H7O2+MBMJ=NC3H7O+MBMO  7.0000e-038 0.000 -1000.0
!197
MB2OO=MB2OOH3J  1.0880e-038 0.000 29206.5
!198
MB2OO=MB2OOH4J  6.0970e+010 0.000 25076.0
!199
!*** trimmed *** MB2OO=MB2OOHMJ  3.1650e-041 0.000 21803.5
!200
MB3OO=MB3OOH2J  2.8370e+012 0.000 27789.0
!201
!*** trimmed *** MB3OO=MB3OOH4J  8.6690e-039 0.000 30876.0
!202
MB4OO=MB4OOH2J  1.9950e+011 0.000 21989.0
!203
MB4OO=MB4OOH3J  1.0880e+012 0.000 29206.5
!204
MBMOO=MBMOOH2J  1.4550e+010 0.000 19189.0
!205
MB4OO+HO2=MB4OOH+O2  1.7500e+010 0.000 -3275.0
!206
!*** trimmed *** MB3OO+HO2=MB3OOH+O2  1.7500e-040 0.000 -3275.0
!207
MB2OO+HO2=MB2OOH+O2  1.7500e+010 0.000 -3275.0
!208
!*** trimmed *** MBMOO+HO2=MBMOOH+O2  1.7500e-040 0.000 -3275.0
!209
MB4OO+H2O2=>MB4OOH+HO2  2.4000e+012 0.000 10000.0
!210
MB4OOH+HO2=>MB4OO+H2O2  2.4000e+012 0.000 10000.0
!211
!*** trimmed *** MB3OO+H2O2=>MB3OOH+HO2  2.4000e-038 0.000 10000.0
!212
!*** trimmed *** MB3OOH+HO2=>MB3OO+H2O2  2.4000e-038 0.000 10000.0
!213
MB2OO+H2O2=>MB2OOH+HO2  2.4000e+012 0.000 10000.0
!214
MB2OOH+HO2=>MB2OO+H2O2  2.4000e+012 0.000 10000.0
!215
!*** trimmed *** MBMOO+H2O2=>MBMOOH+HO2  2.4000e-038 0.000 10000.0
!216
!*** trimmed *** MBMOOH+HO2=>MBMOO+H2O2  2.4000e-038 0.000 10000.0
!217
MB4OO+CH3O2=>MB4O+CH3O+O2  1.4000e+016 -1.610 1860.0
!218
!*** trimmed *** MB3OO+CH3O2=>MB3O+CH3O+O2  1.4000e-034 -1.610 1860.0
!219
MB2OO+CH3O2=>MB2O+CH3O+O2  1.4000e+016 -1.610 1860.0
!220
MBMOO+CH3O2=>MBMO+CH3O+O2  1.4000e+016 -1.610 1860.0
!221
!*** trimmed *** C2H5O2+MB4OO=>C2H5O+MB4O+O2  1.4000e-034 -1.610 1860.0
!222
!*** trimmed *** C2H5O2+MB3OO=>C2H5O+MB3O+O2  1.4000e-034 -1.610 1860.0
!223
!*** trimmed *** C2H5O2+MB2OO=>C2H5O+MB2O+O2  1.4000e-034 -1.610 1860.0
!224
!*** trimmed *** C2H5O2+MBMOO=>C2H5O+MBMO+O2  1.4000e-034 -1.610 1860.0
!225
!*** trimmed *** IC3H7O2+MB4OO=>IC3H7O+MB4O+O2  1.4000e-034 -1.610 1860.0
!226
!*** trimmed *** IC3H7O2+MB3OO=>IC3H7O+MB3O+O2  1.4000e-034 -1.610 1860.0
!227
!*** trimmed *** IC3H7O2+MB2OO=>IC3H7O+MB2O+O2  1.4000e-034 -1.610 1860.0
!228
!*** trimmed *** IC3H7O2+MBMOO=>IC3H7O+MBMO+O2  1.4000e-034 -1.610 1860.0
!229
MB2OO+MB2OO=>O2+MB2O+MB2O  1.4000e+016 -1.610 1860.0
!230
!*** trimmed *** MB2OO+MB3OO=>MB2O+MB3O+O2  1.4000e-034 -1.610 1860.0
!231
MB2OO+MB4OO=>MB2O+MB4O+O2  1.4000e+016 -1.610 1860.0
!232
MB2OO+MBMOO=>MB2O+MBMO+O2  1.4000e+016 -1.610 1860.0
!233
!*** trimmed *** MB3OO+MB3OO=>O2+MB3O+MB3O  1.4000e-034 -1.610 1860.0
!234
!*** trimmed *** MB3OO+MB4OO=>MB3O+MB4O+O2  1.4000e-034 -1.610 1860.0
!235
!*** trimmed *** MB3OO+MBMOO=>MB3O+MBMO+O2  1.4000e-034 -1.610 1860.0
!236
MB4OO+MB4OO=>O2+MB4O+MB4O  1.4000e+016 -1.610 1860.0
!237
MB4OO+MBMOO=>MB4O+MBMO+O2  1.4000e+016 -1.610 1860.0
!238
MBMOO+MBMOO=>O2+MBMO+MBMO  1.4000e+016 -1.610 1860.0
!239
!*** trimmed *** NC3H7O2+MB4OO=>NC3H7O+MB4O+O2  1.4000e-034 -1.610 1860.0
!240
!*** trimmed *** NC3H7O2+MB3OO=>NC3H7O+MB3O+O2  1.4000e-034 -1.610 1860.0
!241
!*** trimmed *** NC3H7O2+MB2OO=>NC3H7O+MB2O+O2  1.4000e-034 -1.610 1860.0
!242
!*** trimmed *** NC3H7O2+MBMOO=>NC3H7O+MBMO+O2  1.4000e-034 -1.610 1860.0
!243
MB4OOH=MB4O+OH  1.5000e+016 0.000 42500.0
!244
!*** trimmed *** MB3OOH=MB3O+OH  9.4500e-035 0.000 41600.0
!245
MB2OOH=MB2O+OH  5.9500e+015 0.000 42540.0
!246
!*** trimmed *** MBMOOH=MBMO+OH  1.5000e-034 0.000 42500.0
!247
CH2O+MP3J=MB4O  1.5000e+011 0.000 11900.0
!248
!*** trimmed *** CH3CHO+ME2J=MB3O  1.5000e-039 0.000 11900.0
!249
ME2*O+C2H5=MB2O  1.5000e+011 0.000 11900.0
!250
MBM*O+H=MBMO  6.6280e+009 1.110 4226.0
!251
MB4*O+H=MB4O  6.6280e+009 1.110 4226.0
!252
!*** trimmed *** MP3*O+CH3=MB3O  1.5000e-039 0.000 11900.0
!253
C2H5CHO+CH3OCO=MB2O  1.5000e+011 0.000 11900.0
!254
CH2O+BAOJ=MBMO  1.5000e+011 0.000 11900.0
!255
!*** trimmed *** MB2OOHMJ=>MBCY2OM+OH  9.3750e-041 0.000 7000.0
!256
!*** trimmed *** MB2OOH4J=>MBCY4O2+OH  7.5000e-040 0.000 15250.0
!257
!*** trimmed *** MB3OOH4J=>MBCY4O3+OH  6.0000e-039 0.000 22000.0
!258
!*** trimmed *** MB4OOH2J=>MBCY4O2+OH  7.5000e-040 0.000 15250.0
!259
!*** trimmed *** MB4OOH3J=>MBCY4O3+OH  6.0000e-039 0.000 22000.0
!260
MBMOOH2J=>MBCY2OM+OH  9.3750e+009 0.000 7000.0
!261
MB3D+HO2=MB4OOH3J  1.5000e+011 0.000 7800.0
!262
MB2D+HO2=MB3OOH2J  1.5000e+011 0.000 7800.0
!263
!*** trimmed *** MB3D+HO2=MB3OOH4J  1.5000e-039 0.000 7800.0
!264
MB2D+HO2=MB2OOH3J  1.5000e-039 0.000 7800.0
!265
MB2OOH4J=>ME2*O+C2H4+OH  5.9160e+019 -1.870 30290.0
!266
MB4OOH2J=>MP2D+CH2O+OH  1.0250e+020 -1.580 33380.0
!267
!*** trimmed *** MB2OOH3J+O2=MB2OOH3OO  7.5400e-038 0.000 0.0
!268
MB2OOH4J+O2=MB2OOH4OO  4.5200e+012 0.000 0.0
!269
!*** trimmed *** MB2OOHMJ+O2=MB2OOHMOO  4.5200e-038 0.000 0.0
!270
!*** trimmed *** MB3OOH4J+O2=MB3OOH4OO  4.5200e-038 0.000 0.0
!271
MB4OOH2J+O2=MB4OOH2OO  1.4100e+013 0.000 0.0
!272
!*** trimmed *** MB4OOH3J+O2=MB4OOH3OO  7.5400e-038 0.000 0.0
!273
MBMOOH2J+O2=MBMOOH2OO  1.4100e+013 0.000 0.0
!274
MB2OOH4OO=MB4OOH2*O+OH  9.9760e+010 0.000 20351.0
!275
!*** trimmed *** MB2OOHMOO=MBMOOH2*O+OH  7.2750e-041 0.000 20190.7
!276
!*** trimmed *** MB3OOH4OO=MB4OOH2D+HO2  1.9950e-039 0.000 20351.0
!277
!*** trimmed *** MB4OOH2OO=MB4OOH2D+HO2  1.0880e-038 0.000 29206.5
!278
MB4OOH2OO=MB2OOH4*O+OH  4.0650e+010 0.000 21863.0
!279
!*** trimmed *** MB4OOH3OO=MB4OOH2D+HO2  2.8370e-038 0.000 26151.0
!280
!*** trimmed *** MBMOOH2OO=MBMOOH2D+HO2  1.0880e-038 0.000 31846.2
!281
!*** trimmed *** MBMOOH2OO=MB2OOHM*O+OH  2.1100e-041 0.000 21703.0
!282
!*** trimmed *** MB3OOH4OO=>MB4OOH3OO  7.2750e-041 0.000 12700.0
!283
MB4OOH2*O=>CH2O+MP3J2*O+OH  1.5000e+016 0.000 42000.0
!284
!*** trimmed *** MB4OOH2D=>CH2O+MP2D3J+OH  1.5000e-034 0.000 42000.0
!285
!*** trimmed *** MBMOOH2*O=>CH2O+BAOJ2*O+OH  1.5000e-034 0.000 42000.0
!286
!*** trimmed *** MBMOOH2D=>CH2O+BAOJ2D+OH  1.5000e-034 0.000 42000.0
!287
MB2OOH4*O=>ME2*O+CH2CHO+OH  1.0500e+016 0.000 41600.0
!288
!*** trimmed *** MB2OOHM*O=>ME2*OM*O+C2H5+OH  1.0500e-034 0.000 41600.0
!289
MBCY2OM+H=>CO2+SC3H5OCH2+H2  4.8000e+008 1.500 2005.0
!290
MBCY2OM+OH=>CO2+SC3H5OCH2+H2O  2.4000e+006 2.000 -1192.2
!291
MBCY2OM+HO2=>CO2+SC3H5OCH2+H2O2  4.0000e+012 0.000 13261.0
!292
!*** trimmed *** MBCY2OM+H=>CH2O+C2H5COCO+H2  2.4000e-042 1.500 2005.0
!293
!*** trimmed *** MBCY2OM+OH=>CH2O+C2H5COCO+H2O  1.2000e-044 2.000 -1192.2
!294
!*** trimmed *** MBCY2OM+HO2=>CH2O+C2H5COCO+H2O2  2.0000e-038 0.000 13261.0
!295
!*** trimmed *** MBCY4O2+H=>MP2D+HCO+H2  4.8000e-042 1.500 2785.0
!296
!*** trimmed *** MBCY4O2+OH=>MP2D+HCO+H2O  2.4000e-044 2.000 -1192.2
!297
!*** trimmed *** MBCY4O2+HO2=>MP2D+HCO+H2O2  4.0000e-038 0.000 14398.0
!298
!*** trimmed *** MBCY4O2+H=>C2H4+ME2J*O+H2  2.4000e-042 1.500 2005.0
!299
!*** trimmed *** MBCY4O2+OH=>C2H4+ME2J*O+H2O  1.2000e-044 2.000 -1192.2
!300
!*** trimmed *** MBCY4O2+HO2=>C2H4+ME2J*O+H2O2  2.0000e-038 0.000 13261.0
!301
!*** trimmed *** MBCY4O3+H=>CH2O+MP2D3J+H2  4.8000e-042 1.500 2875.0
!302
!*** trimmed *** MBCY4O3+OH=>CH2O+MP2D3J+H2O  2.4000e-044 2.000 -1192.2
!303
!*** trimmed *** MBCY4O3+HO2=>CH2O+MP2D3J+H2O2  4.0000e-038 0.000 14398.0
!304
!*** trimmed *** MBCY4O3+H=>CH2CO+ME2J+H2  4.8000e-042 1.500 2005.0
!305
!*** trimmed *** MBCY4O3+OH=>CH2CO+ME2J+H2O  2.4000e-044 2.000 -1192.2
!306
!*** trimmed *** MBCY4O3+HO2=>CH2CO+ME2J+H2O2  4.0000e-038 0.000 13261.0
!307
!*** trimmed *** ME2*O+H=ME2J*O+H2  4.0000e-037 0.000 4200.0
!308
!*** trimmed *** MB4*O+H=MB4J*O+H2  4.0000e-037 0.000 4200.0
!309
!*** trimmed *** MBM*O+H=MBMJ*O+H2  4.0000e-037 0.000 4200.0
!310
!*** trimmed *** MP3*O+H=MP3J*O+H2  4.0000e-037 0.000 4200.0
!311
!*** trimmed *** ME2*O+OH=ME2J*O+H2O  2.6900e-040 0.760 -340.0
!312
!*** trimmed *** MB4*O+OH=MB4J*O+H2O  2.6900e-040 0.760 -340.0
!313
!*** trimmed *** MBM*O+OH=MBMJ*O+H2O  2.6900e-040 0.760 -340.0
!314
!*** trimmed *** MP3*O+OH=MP3J*O+H2O  2.6900e-040 0.760 -340.0
!315
!*** trimmed *** ME2*O+O=ME2J*O+OH  5.0000e-038 0.000 1790.0
!316
!*** trimmed *** MB4*O+O=MB4J*O+OH  5.0000e-038 0.000 1790.0
!317
!*** trimmed *** MBM*O+O=MBMJ*O+OH  5.0000e-038 0.000 1790.0
!318
!*** trimmed *** MP3*O+O=MP3J*O+OH  5.0000e-038 0.000 1790.0
!319
!*** trimmed *** ME2*O+CH3=ME2J*O+CH4  1.7000e-038 0.000 8440.0
!320
!*** trimmed *** MB4*O+CH3=MB4J*O+CH4  1.7000e-038 0.000 8440.0
!321
!*** trimmed *** MBM*O+CH3=MBMJ*O+CH4  1.7000e-038 0.000 8440.0
!322
!*** trimmed *** MP3*O+CH3=MP3J*O+CH4  1.7000e-038 0.000 8440.0
!323
!*** trimmed *** ME2*O+HO2=ME2J*O+H2O2  2.8000e-038 0.000 13600.0
!324
!*** trimmed *** MB4*O+HO2=MB4J*O+H2O2  2.8000e-038 0.000 13600.0
!325
!*** trimmed *** MBM*O+HO2=MBMJ*O+H2O2  2.8000e-038 0.000 13600.0
!326
!*** trimmed *** MP3*O+HO2=MP3J*O+H2O2  2.8000e-038 0.000 13600.0
!327
!*** trimmed *** CO2+C2H5CO=BAOJ2*O  1.0000e-039 0.000 30850.0
!328
CO2+C3H5-S=BAOJ2D  1.0000e+011 0.000 9200.0
!329
!*** trimmed *** CO+C2H5CO=C2H5COCO  1.5000e-039 0.000 3000.0
!330
!*** trimmed *** MP3J+CO=MB4J*O  1.5000e-039 0.000 3000.0
!331
!*** trimmed *** BAOJ+CO=MBMJ*O  1.5000e-039 0.000 3000.0
!332
!*** trimmed *** CH3OCO+CO=ME2J*O  1.5000e-039 0.000 3000.0
!333
C2H2+CH3OCO=MP2D3J  1.6100e+040 -8.580 20331.0
!334
!*** trimmed *** CO+ME2J=MP3J*O  1.5000e-039 0.000 3000.0
!335
!*** trimmed *** CH2CO+CH3OCO=MP3J*O  1.0000e-039 0.000 7600.0
!336
CH2CO+CH3OCO=MP3J2*O  1.0000e+011 0.000 9200.0
!337
CH2O+C3H5-S=SC3H5OCH2  7.5000e+010 0.000 36730.0
!338
!*** trimmed *** OCHO+CO=CHOOCO  1.5000e-039 0.000 3000.0
!339
!*** trimmed *** HCO+CO2=CHOOCO  1.5000e-039 0.000 36730.0
!340
CH3+H(+M) = CH4(+M)  2.1380e+015 -0.40 0.000E+00
LOW / 3.310E+30 -4.00 2108. /
TROE/0.0  1.E-15  1.E-15  40./
H2/2/ H2O/5/ CO/2/ CO2/3/
!341
CH4+H = CH3+H2  1.7270e+004 3.00 8.224E+03
REV / 6.610E+02 3.00 7.744E+03 /
!342
CH4+OH = CH3+H2O  1.9300e+005 2.40 2.106E+03
REV / 4.820E+02 2.90 1.486E+04 /
!343
CH4+O = CH3+OH  2.1300e+006 2.21 6.480E+03
REV / 3.557E+04 2.21 3.920E+03 /
!344
C2H6+CH3 = C2H5+CH4  1.5100e-007 6.00 6.047E+03
REV / 9.649E-10 6.56 1.022E+04 /
!345
HCO+OH = CO+H2O  1.0200e+014 0.00 0.000E+00
REV / 2.896E+15 0.00 1.052E+05 /
!346
CO+OH = CO2+H  1.4000e+005 1.95 -1.347E+03
REV / 1.568E+07 1.95 2.099E+04 /
!347
H+O2 = O+OH  1.9700e+014 0.00 1.654E+04
REV / 1.555E+13 0.00 4.250E+02 /
!348
O+H2 = H+OH  5.0800e+004 2.67 6.292E+03
REV / 2.231E+04 2.67 4.197E+03 /
!349
O+H2O = OH+OH  2.9700e+006 2.02 1.340E+04
REV / 3.013E+05 2.02 -3.850E+03 /
!350
OH+H2 = H+H2O  2.1600e+008 1.51 3.430E+03
REV / 9.352E+08 1.51 1.858E+04 /
!351
HCO+M = H+CO+M  1.8600e+017 -1.00 1.700E+04
REV / 6.467E+13 0.00 -4.420E+02 /
H2/2.5/ H2O/12/ CO/1.9/ CO2/3.8/
!352
H2O2+OH = H2O+HO2  1.0000e+012 0.00 0.000E+00
REV / 1.685E+11  0.33 3.146E+04 /
DUPLICATE
!353
C2H4+O = CH3+HCO  1.0200e+007 1.88 1.790E+02
REV / 2.851E+08  1.05 3.177E+04 /
!354
H+C2H4(+M) = C2H5(+M)  1.0810e+012 0.45 1.822E+03
LOW / 1.112E+34 -5.00 4.448E+03 /
TROE/1.0  1.000E-15  9.500E+01  2.000E+02/
H2/2/ H2O/5/ CO/2/ CO2/3/
!355
CH3OH(+M) = CH3+OH(+M)  1.9000e+016 0.00 9.173E+04
LOW / 2.95E+44 -7.35 9.546E+04 /
TROE/0.414  279.  5459. 1.00E+100/
H2/2/ H2O/16/ CO/2/ CO2/3/
!356
C2H6+H = C2H5+H2  5.5400e+002 3.50 5.167E+03
REV / 1.355E-01 4.06 8.857E+03 /
!357
CH3OH+HO2 = CH2OH+H2O2  3.9800e+013 0.00 1.940E+04
REV / 3.130E+15 -0.90 1.075E+04 /
!358
C2H5+O2 = C2H4+HO2  1.2200e+030 -5.76 1.010E+04
REV / 1.259E+30 -5.63 2.231E+04 /
!359
C2H6+OH = C2H5+H2O  5.1250e+006 2.06 8.550E+02
REV / 1.010E+07 2.06 2.298E+04 /
!360
C2H6+O = C2H5+OH  1.1300e+014 0.00 7.850E+03
REV / 2.080E+13 0.00 1.272E+04 /
!361
CH3+HO2 = CH3O+OH  1.1000e+013 0.00 0.000E+00
REV / 4.780E+14 -0.35 2.455E+04 /
!362
CO+HO2 = CO2+OH  3.0100e+013 0.00 2.300E+04
REV / 6.435E+15 -0.33 8.461E+04 /
!363
CH3+CH3(+M) = C2H6(+M)  9.2140e+016 -1.17 6.358E+02
LOW / 1.135E+36 -5.246 1.705E+03 /
TROE/0.405 1120. 69.6 1.E+15/
H2/2/ H2O/5/ CO/2/ CO2/3/
!364
H2O+M = H+OH+M  1.8370e+027 -3.00 1.226E+05
REV/ 2.250E+22 -2.00  0.000E+00 /
H2/2.5/ H2O/12/ CO/1.9/ CO2/3.8/
!365
H+O2(+M) = HO2(+M)  1.4750e+012 0.60 0.000E+00
LOW/ 3.500E+16 -0.41 -1.1160E+03 /
TROE/5.0000E-01  1.0000E-30  1.0000E+30 1.00E+100/
H2/2.5/ H2O/12/ CO/1.9/ CO2/3.8/
!366
CO+O(+M) = CO2(+M)  1.8000e+010 0.00 2.384E+03
LOW/ 1.350E+24 -2.788  4191. /
H2/2.5/ H2O/12/ CO/1.9/ CO2/3.8/
!367
CO+O2 = CO2+O  1.0680e-015 7.13 1.332E+04
REV / 9.444E-15 7.13 1.954E+04 /
!368
HCO+H = CO+H2  7.3400e+013 0.00 0.000E+00
REV / 4.813E+14 0.00 9.000E+04 /
!369
HCO+O = CO+OH  3.0200e+013 0.00 0.000E+00
REV / 8.697E+13 0.00 8.790E+04 /
!370
CH2O+M = HCO+H+M  6.2830e+029 -3.57 9.320E+04
REV / 2.660E+24 -2.57 4.270E+02 /
!371
CH2O+OH = HCO+H2O  3.4300e+009 1.18 -4.470E+02
REV / 1.186E+09 1.18 2.938E+04 /
!372
CH2O+H = HCO+H2  9.3340e+008 1.50 2.976E+03
REV / 7.453E+07 1.50 1.765E+04 /
!373
CH2O+O = HCO+OH  4.1600e+011 0.57 2.762E+03
REV / 1.459E+10 0.57 1.534E+04 /
!374
CH3+OH = CH2O+H2  2.2500e+013 0.00 4.300E+03
REV / 6.756E+14 0.00 7.603E+04 /
!375
CH3+O = CH2O+H  8.0000e+013 0.00 0.000E+00
REV / 1.055E+15 0.00 6.963E+04 /
!376
CH3+O2 = CH3O+O  1.9950e+018 -1.57 2.921E+04
!377
CH2O+CH3 = HCO+CH4  3.6360e-006 5.42 9.980E+02
REV / 7.584E-06 5.42 1.615E+04 /
!378
HCO+CH3 = CH4+CO  1.2100e+014 0.00 0.000E+00
REV / 2.073E+16 0.00 9.048E+04 /
!379
CH3O=CH2O+H  1.3800e+021 -6.65 3.319E+04
!380
C2H4(+M) = C2H2+H2(+M)  1.8000e+013 0.00 7.600E+04
LOW / 1.500E+15 0.00 5.5443E+04 /
!381
HO2+O = OH+O2  3.2500e+013 0.00 0.000E+00
REV / 7.857E+14 -0.33 5.539E+04 /
!382
HCO+HO2 = CH2O+O2  2.9740e+010 0.33 -3.861E+03
REV / 2.050E+13 0.00 3.895E+04 /
!383
CH3O+O2 = CH2O+HO2  5.5000e+010 0.00 2.424E+03
REV / 1.318E+09 0.35 3.139E+04 /
!384
CH3+HO2 = CH4+O2  3.6000e+012 0.00 0.000E+00
REV / 5.177E+15 -0.33 5.796E+04 /
!385
HCO+O2 = CO+HO2  7.5800e+012 0.00 4.100E+02
REV / 9.029E+11 0.33 3.293E+04 /
!386
HO2+H = OH+OH  7.0800e+013 0.00 3.000E+02
REV / 1.352E+14 -0.33 3.957E+04 /
!387
HO2+H = H2+O2  1.6600e+013 0.00 8.200E+02
REV / 9.138E+14 -0.33 5.830E+04 /
!388
HO2+OH = H2O+O2  2.8900e+013 0.00 -5.000E+02
REV / 6.888E+15 -0.33 7.214E+04 /
!389
H2O2+O2 = HO2+HO2  5.9420e+017 -0.66 5.315E+04
REV / 4.200E+14 0.00 1.198E+04 /
DUPLICATE
!390
OH+OH(+M) = H2O2(+M)  1.2360e+014 -.37 0.000E+00
LOW / 3.041E+30 -4.63 2049. /
TROE /0.47 100. 2000. 1.0E+15/
H2/2.5/ H2O/12/ CO/1.9/ CO2/3.8/
!391
H2O2+H = H2O+OH  2.4100e+013 0.00 3.970E+03
REV / 7.750E+12 0.00 7.471E+04 /
!392
CH4+HO2 = CH3+H2O2  3.4200e+011 0.00 1.929E+04
REV / 3.365E+11 -0.33 2.502E+03 /
!393
CH2O+HO2 = HCO+H2O2  5.8200e-003 4.53 6.557E+03
REV / 1.194E-02 4.20 4.921E+03 /
!394
OH+M = O+H+M  3.9090e+022 -2.00 1.053E+05
REV /  4.720E+18  -1.00  0.000E+00 /
H2/2.5/ H2O/12/ CO/1.9/ CO2/3.8/
!395
O2+M = O+O+M  6.4730e+020 -1.50 1.215E+05
REV / 6.170E+15 -0.50 0.000E+00 /
H2/2.5/ H2O/12/ CO/1.9/ CO2/3.8/
!396
H2+M = H+H+M  4.5700e+019 -1.40 1.044E+05
REV/ 2.423E+15 -0.40 -3.040E+03 /
H2/2.5/ H2O/12/ CO/1.9/ CO2/3.8/
!397
C2H3+H(+M) = C2H4(+M)  6.1000e+012 0.27 2.800E+02
LOW / 9.800E+29 -3.86 3.320E+03 /
TROE /0.782 208. 2663. 6095./
!398
C2H5+C2H3 = C2H4+C2H4  3.0000e+012 0.00 0.000E+00
REV/ 4.820E+14 0.00  7.153E+04 /
!399
C2H2+H(+M) = C2H3(+M)  3.1100e+011 0.58 2.589E+03
LOW/ 2.254E+40 -7.269  6577. /
TROE/ 1.0 1.E-15 675. 1.E+15/
H2/2/ H2O/5/ CO/2/ CO2/3/
!400
C2H4+H = C2H3+H2  8.4200e-003 4.62 2.583E+03
REV / 5.723E-01 3.79 3.233E+03 /
!401
C2H4+OH = C2H3+H2O  2.0200e+013 0.00 5.955E+03
REV / 1.015E+13 0.00 2.022E+04 /
!402
C2H3+O2 = C2H2+HO2  5.1900e-015 -1.26 3.310E+03
REV / 2.727E-16 -0.93 1.140E+04 /
DUPLICATE
!403
C2H2+M = C2H+H+M  4.2000e+016 0.00 1.070E+05
REV / 7.130E+07 2.08 -2.891E+04 /
!404
C2H2+O2 = HCCO+OH  2.0000e+008 1.50 3.010E+04
REV / 2.232E+05 1.50 2.540E+04 /
!405
CH2+O2 = CO+H2O  7.2800e+019 -2.54 1.809E+03
REV / 8.508E+20 -2.54 1.798E+05 /
!406
C2H2+OH = C2H+H2O  3.3700e+007 2.00 1.400E+04
REV / 4.671E+03 3.08 6.850E+02 /
!407
O+C2H2 = C2H+OH  3.1600e+015 -0.60 1.500E+04
REV / 4.443E+10 0.48 -1.557E+04 /
!408
C2H2+O = CH2+CO  6.1200e+006 2.00 1.900E+03
REV / 1.152E+06 2.00 5.257E+04 /
!409
C2H+O2 = HCO+CO  2.4100e+012 0.00 0.000E+00
REV / 1.328E+16 -1.08 1.541E+05 /
!410
!*** trimmed *** C2H+O = CO+CH  1.8100e-037 0.00 0.000E+00
!*** trimmed *** REV / 7.478E+16 -1.08 8.213E+04 /
!411
CH2+O2 = HCO+OH  1.2900e+020 -3.30 2.840E+02
REV / 5.310E+19 -3.30 7.317E+04 /
!412
CH2+O = CO+H+H  5.0000e+013 0.00 0.000E+00
REV / 0.000E+00 0.00 0.000E+00 /
!413
!*** trimmed *** CH2+H = CH+H2  1.0000e-032 -1.56 0.000E+00
!*** trimmed *** REV / 7.026E+17 -1.56 2.990E+03 /
!414
!*** trimmed *** CH2+OH = CH+H2O  1.1300e-043 2.00 3.000E+03
!*** trimmed *** REV / 3.437E+07 2.00 2.115E+04 /
!415
CH2+O2 = CO2+H+H  3.2900e+021 -3.30 2.868E+03
REV / 0.000E+00 0.00 0.000E+00 /
!416
!*** trimmed *** CH+O2 = HCO+O  3.3000e-037 0.00 0.000E+00
!*** trimmed *** REV / 4.402E+13 0.00 7.199E+04 /
!417
CH3OH+OH = CH2OH+H2O  7.1000e+006 1.80 -5.960E+02
REV / 3.293E+01 3.46 2.272E+04 /
!418
CH3OH+H = CH3O+H2  3.6000e+012 0.00 6.095E+03
REV / 7.467E+12 -0.02 7.825E+03 /
!419
CH3OH+H = CH2OH+H2  1.4400e+013 0.00 6.095E+03
REV / 1.543E+07 1.66 1.425E+04 /
!420
CH3OH+CH3 = CH2OH+CH4  3.1900e+001 3.17 7.172E+03
REV / 8.927E-04 4.83 1.581E+04 /
!421
CH3OH+O = CH2OH+OH  3.8800e+005 2.50 3.080E+03
REV / 4.960E+03 2.50 8.781E+03 /
!422
CH2OH+O2 = CH2O+HO2  3.8100e+006 2.00 1.641E+03
REV / 1.768E+11 0.67 2.418E+04 /
!423
CH2OH(+M) = CH2O+H(+M)  2.8000e+014 -0.73 3.282E+04
LOW / 6.010E+33 -5.39 3.620E+04 /
TROE/ 0.96 67.6 1855. 7543./
!424
C2H3+O2 = C2H2+HO2  2.1200e-006 6.00 9.484E+03
REV / 1.114E-07 6.33 1.757E+04 /
DUPLICATE
!425
H2O2+O = OH+HO2  9.5500e+006 2.00 3.970E+03
REV / 2.541E+07 1.68 1.985E+04 /
!426
C2H2+O = HCCO+H  1.4300e+007 2.00 1.900E+03
REV / 2.021E+05 2.00 1.331E+04 /
!427
C2H2+OH = CH2CO+H  2.1900e-004 4.50 -1.000E+03
REV / 2.161E-03 4.50 1.967E+04 /
!428
CH2CO+H = CH3+CO  1.1000e+013 0.00 3.400E+03
REV / 2.400E+12 0.00 4.020E+04 /
!429
CH2CO+O = CH2+CO2  1.7500e+012 0.00 1.350E+03
REV / 3.739E+12 0.00 5.369E+04 /
!430
CH2+O2 = CH2O+O  3.2900e+021 -3.30 2.868E+03
REV / 3.862E+22 -3.30 6.318E+04 /
!431
CH2CO(+M) = CH2+CO(+M)  3.0000e+014 0.00 7.098E+04
LOW / 3.600E+15 0.00  5.927E+04 /
!432
CH2CO+O = HCCO+OH  1.0000e+013 0.00 8.000E+03
REV / 1.432E+10 0.00 -1.255E+03 /
!433
CH2CO+OH = HCCO+H2O  1.0000e+013 0.00 2.000E+03
REV / 1.412E+11 0.00 9.995E+03 /
!434
CH2CO+H = HCCO+H2  2.0000e+014 0.00 8.000E+03
REV / 6.522E+11 0.00 8.400E+02 /
!435
HCCO+OH = HCO+HCO  1.0000e+013 0.00 0.000E+00
REV / 4.820E+13 0.00 4.036E+04 /
!436